LAMMPS (29 Sep 2021)
boundary p p p
atom_style full
units metal
variable THERMO_DAMP equal 0.1
variable BARO_DAMP equal 0.5

read_data ThUO2-5x5x5.lmpstruct
Reading data file ...
  triclinic box = (-13.670000 -13.670000 -13.670000) to (13.670000 13.670000 13.670000) with tilt (0.0000000 0.0000000 0.0000000)
  reading atoms ...
  1500 atoms
Finding 1-2 1-3 1-4 neighbors ...
     0 = max # of 1-2 neighbors
     0 = max # of 1-3 neighbors
     0 = max # of 1-4 neighbors
     1 = max # of special neighbors

variable O equal 1
variable Ce equal 2
variable Th equal 3
variable U equal 4
variable Np equal 5
variable Pu equal 6
variable Am equal 7
variable Cm equal 8

set type $O charge -1.1104
set type 1 charge -1.1104
Setting atom values ...
  1000 settings made for charge
set type 2 charge 2.2208
Setting atom values ...
  0 settings made for charge
set type 3 charge 2.2208
Setting atom values ...
  250 settings made for charge
set type 4 charge 2.2208
Setting atom values ...
  250 settings made for charge
set type 5 charge 2.2208
Setting atom values ...
  0 settings made for charge
set type 6 charge 2.2208
Setting atom values ...
  0 settings made for charge
set type 7 charge 2.2208
Setting atom values ...
  0 settings made for charge
set type 8 charge 2.2208
Setting atom values ...
  0 settings made for charge

#change_box ortho
kspace_style pppm 1.0e-5

variable SR_CUTOFF equal 11.0

pair_style hybrid/overlay coul/long 11 eam/alloy
pair_coeff   *    *    coul/long
pair_coeff   *    *    eam/alloy  CeThUNpPuAmCmO.eam.alloy  O Ce Th U Np Pu Am Cm

fix boxrelax_fix all box/relax aniso 0.0 vmax 0.001
thermo 1
thermo_style custom step cpu press etotal lx
min_style cg
min_modify line quadratic dmax 0.05

#Perform minimization
minimize 1.0e-25 1.0e-25 1000 10000
PPPM initialization ...
  G vector (1/distance) = 0.30130697
  grid = 32 32 32
  stencil order = 5
  estimated absolute RMS force accuracy = 0.00013341462
  estimated relative force accuracy = 9.2651323e-06
  3d grid and FFT values/proc = 12167 4096
  update every 1 steps, delay 0 steps, check yes
Step CPU Press TotEng Lx
0            0    57863.916   -20029.505        27.34
Loop time of 0.77634 on 8 procs for 43 steps with 1500 atoms

Minimization stats:
  Stopping criterion = linesearch alpha is zero
  Energy initial, next-to-last, final =
  Force two-norm initial, final = 1278.6578 0.99195612
  Force max component initial, final = 738.08049 0.52629103
  Final line search alpha, max atom move = 8.1207185e-09 4.2738613e-09
  Iterations, force evaluations = 43 106

unfix boxrelax_fix

variable T equal 300.0

velocity all create $T 160278
velocity all create 300 160278
timestep 0.002

# Set-up thermostat
fix thermostat_fix all npt temp 300 300 0.1 aniso 0.0 0.0 0.5

thermo_style custom step temp press etotal lx vol
thermo 10

neigh_modify delay 0 every 1 check yes

run 25000
PPPM initialization ...
  G vector (1/distance) = 0.30089371
  grid = 32 32 32
  stencil order = 5
  estimated absolute RMS force accuracy = 0.00013633607
  estimated relative force accuracy = 9.4680161e-06
  3d grid and FFT values/proc = 12167 4096
Step Temp Press TotEng Lx Volume
43          300    2950.2555   -19998.981     27.57272    20961.201
Averages over the last 1251 of 2502 rows, steps 12550 to 25043:
Temp Press TotEng Lx Volume
299.873 -0.055601 -19939.7 27.651 21140.2
Loop time of 137.161 on 8 procs for 25000 steps with 1500 atoms
