LAMMPS (29 Sep 2021)
# set periodic boundaries, units and thero-baro damping
boundary p p p
atom_style full
units metal
variable THERMO_DAMP equal 0.1
variable BARO_DAMP equal 0.5

# import UO2 single cell fluorite structure and assign atom labels
read_data UO2-single_cell.lmpstruct
Reading data file ...
  orthogonal box = (0.0000000 0.0000000 0.0000000) to (5.4680000 5.4680000 5.4680000)
  reading atoms ...
  12 atoms
Finding 1-2 1-3 1-4 neighbors ...
     0 = max # of 1-2 neighbors
     0 = max # of 1-3 neighbors
     0 = max # of 1-4 neighbors
     1 = max # of special neighbors
variable O equal 1
variable U equal 2

# set charges
set type $O charge -1.1104
set type 1 charge -1.1104
Setting atom values ...
  8 settings made for charge
set type $U charge 2.2208
set type 2 charge 2.2208
Setting atom values ...
  4 settings made for charge

# define interatomic potential via coulombic and embed_UO2.fs tabulation
kspace_style pppm 1.0e-5
variable SR_CUTOFF equal 11.0
pair_style hybrid/overlay coul/long 11 eam/alloy
pair_coeff   *    *    coul/long
pair_coeff   *    *    eam/alloy CeThUNpPuAmCmO.eam.alloy O U

#Perform minimization
fix boxrelax_fix all box/relax aniso 0.0 vmax 0.001
thermo 1
thermo_style custom step cpu press etotal lx cella cellb cellc cellalpha cellbeta cellgamma
min_style sd
min_modify line quadratic dmax 0.05
minimize 1.0e-25 1.0e-25 1000 10000
PPPM initialization ...
  G vector (1/distance) = 0.31369845
  grid = 8 8 8
  stencil order = 5
  estimated absolute RMS force accuracy = 5.1527863e-05
  estimated relative force accuracy = 3.578412e-06
  3d grid and FFT values/proc = 1331 64
  update every 1 steps, delay 0 steps, check yes
Step CPU Press TotEng Lx Cella Cellb Cellc CellAlpha CellBeta CellGamma
0            0   -17290.695   -162.70875        5.468        5.468        5.468        5.468           90           90           90
Loop time of 0.0060612 on 8 procs for 4 steps with 12 atoms

Minimization stats:
  Stopping criterion = linesearch alpha is zero
  Energy initial, next-to-last, final =
  Force two-norm initial, final = 3.0559641 0.0014163263
  Force max component initial, final = 1.7643617 0.00081771638
  Final line search alpha, max atom move = 0.0039062500 3.1942046e-06
  Iterations, force evaluations = 4 21

unfix boxrelax_fix

# Create 4x4x4 supercell containing 768 atoms
replicate 4 4 4
Replicating atoms ...
  orthogonal box = (0.0073440578 0.0073440578 0.0073440578) to (21.820592 21.820592 21.820592)
  768 atoms
Finding 1-2 1-3 1-4 neighbors ...
     0 = max # of 1-2 neighbors
     0 = max # of 1-3 neighbors
     0 = max # of 1-4 neighbors
     1 = max # of special neighbors
  replicate CPU = 0.007 seconds

# create initial velocities and set timestep
velocity all create 300 160278
timestep 0.002

# Set-up thermostat
fix thermostat_fix all npt temp 300 300 0.1 aniso 0.0 0.0 0.5

thermo_style one
thermo 10

neigh_modify delay 0 every 1 check yes

# equilibrate for 50ps
run 25000
PPPM initialization ...
  G vector (1/distance) = 0.30039101
  grid = 25 25 25
  stencil order = 5
  estimated absolute RMS force accuracy = 0.0001454392
  estimated relative force accuracy = 1.0100193e-05
  3d grid and FFT values/proc = 8000 2500
Step Temp E_pair E_mol TotEng Press Volume
4          300   -10413.825            0   -10384.083    3040.8568    10379.131
Averages over the last 1251 of 2502 rows, steps 12510 to 25004:
Temp E_pair E_mol TotEng Press Volume
299.624 -10383.4 0 -10353.7 -4.95034 10469.7
Loop time of 69.2678 on 8 procs for 25000 steps with 768 atoms
